ckt7_Mon_rfi_09_der000.csv
fault_bus,fault_type,fault_R_ohm,Va_mag_pu,Va_ang_deg,Vb_mag_pu,Vb_ang_deg,Vc_mag_pu,Vc_ang_deg,Ia_mag_A,Ia_ang_deg,Ib_mag_A,Ib_ang_deg,Ic_mag_A,Ic_ang_deg
318412,SLG,0,0.128048,-115.1121,1.042341,-151.0284,1.041137,88.9507,3.5819,-78.1092,7.41,-161.3837,8.5997,43.0509
318412,SLG,10,1.036903,-31.1131,1.04032,-150.8445,1.035726,89.0793,8.6246,-58.9144,8.6184,-178.9194,8.6209,61.1189
318412,SLG,20,1.036909,-31.0902,1.040322,-150.8444,1.035725,89.0792,8.6245,-58.9073,8.6184,-178.911,8.621,61.1262
318412,SLG,30,1.036911,-31.0826,1.040323,-150.8444,1.035724,89.0792,8.6245,-58.905,8.6184,-178.9082,8.621,61.1287
318412,SLG,40,1.036911,-31.0788,1.040323,-150.8444,1.035724,89.0792,8.6245,-58.9038,8.6183,-178.9068,8.621,61.1299
318412,LL,0,0.124274,-113.2442,0.132055,125.2549,1.041057,88.8174,4.5418,-120.0088,2.1653,-127.7224,6.6938,57.5027
318412,LL,10,1.036905,-31.1129,1.040307,-150.8902,1.035722,89.0793,8.6245,-58.929,8.6186,-178.9336,8.6209,61.1022
318412,LL,20,1.03691,-31.0902,1.040316,-150.8673,1.035723,89.0792,8.6244,-58.9146,8.6185,-178.9181,8.621,61.1179
318412,LL,30,1.036911,-31.0826,1.040319,-150.8596,1.035723,89.0792,8.6244,-58.9098,8.6184,-178.9129,8.621,61.1231
318412,LL,40,1.036912,-31.0788,1.04032,-150.8558,1.035723,89.0792,8.6244,-58.9074,8.6184,-178.9104,8.621,61.1257
318412,3LG,0,0.129417,-113.1055,0.12986,127.1204,0.129271,7.0528,1.0969,-140.8697,1.0996,99.1185,1.098,-20.9941
318412,3LG,10,1.0369,-31.113,1.040311,-150.89,1.035709,89.0335,8.6245,-58.9458,8.6184,-178.9482,8.6212,61.088
318412,3LG,20,1.036907,-31.0902,1.040318,-150.8672,1.035716,89.0564,8.6245,-58.923,8.6184,-178.9254,8.6211,61.1108
318412,3LG,30,1.03691,-31.0826,1.04032,-150.8596,1.035718,89.064,8.6244,-58.9154,8.6184,-178.9178,8.6211,61.1184
318412,3LG,40,1.036911,-31.0788,1.040321,-150.8558,1.035719,89.0678,8.6244,-58.9116,8.6184,-178.914,8.6211,61.1222
243937,SLG,0,0.003493,-25.8731,1.329453,173.9175,1.731157,103.0481,8.2386,-71.0145,8.2049,178.4939,9.3738,53.909
243937,SLG,10,1.030364,-31.2209,1.042615,-151.0991,1.038643,89.3178,8.6292,-58.9544,8.6219,-178.9647,8.6242,61.0822
243937,SLG,20,1.03363,-31.1444,1.041474,-150.9722,1.037183,89.1991,8.6268,-58.9274,8.6201,-178.9337,8.6226,61.1078
243937,SLG,30,1.034723,-31.1188,1.041091,-150.9297,1.036696,89.1593,8.626,-58.9184,8.6195,-178.9234,8.6221,61.1164
243937,SLG,40,1.03527,-31.1059,1.0409,-150.9084,1.036453,89.1393,8.6256,-58.9139,8.6192,-178.9182,8.6218,61.1206
243937,LL,0,0.026187,-58.53,0.029946,107.554,1.481274,84.1091,5.886,-122.5162,5.3605,-125.1767,11.2434,56.2157
243937,LL,10,1.033274,-30.9831,1.036099,-151.2507,1.040884,89.0639,8.6323,-59.0056,8.6266,-179.0191,8.6277,61.0203
243937,LL,20,1.035083,-31.0248,1.038204,-151.0481,1.038318,89.0716,8.6284,-58.953,8.6225,-178.961,8.6244,61.0768
243937,LL,30,1.03569,-31.0389,1.038909,-150.9804,1.037456,89.0742,8.627,-58.9354,8.6211,-178.9415,8.6233,61.0957
243937,LL,40,1.035995,-31.046,1.039262,-150.9464,1.037024,89.0754,8.6264,-58.9267,8.6204,-178.9318,8.6227,61.1052
243937,3LG,0,0.032207,-96.0338,0.032301,144.1928,0.032161,24.1086,0.2729,-123.804,0.2736,116.1834,0.2732,-3.9249
243937,3LG,10,1.035553,-31.2366,1.038961,-151.013,1.034357,88.91,8.6359,-59.0682,8.6298,-179.0705,8.6326,60.9657
243937,3LG,20,1.036234,-31.152,1.039643,-150.9287,1.035041,88.9945,8.6302,-58.9843,8.6241,-178.9866,8.6268,61.0496
243937,3LG,30,1.036461,-31.1238,1.039871,-150.9006,1.035268,89.0227,8.6282,-58.9563,8.6222,-178.9586,8.6249,61.0776
243937,3LG,40,1.036574,-31.1097,1.039984,-150.8866,1.035382,89.0368,8.6273,-58.9423,8.6212,-178.9446,8.6239,61.0916
157347,SLG,0,0.410257,-24.1145,1.093197,-169.1335,1.346386,96.0772,9.0913,-63.8599,9.0891,-179.6818,9.6581,58.2404
157347,SLG,10,1.028505,-31.5499,1.045264,-151.0695,1.036872,89.4303,8.633,-59.0131,8.6247,-179.0326,8.6263,61.025
157347,SLG,20,1.032708,-31.3107,1.042822,-150.9569,1.036273,89.2561,8.6287,-58.9571,8.6215,-178.968,8.6236,61.0788
157347,SLG,30,1.03411,-31.2301,1.041996,-150.9193,1.036084,89.1974,8.6272,-58.9383,8.6204,-178.9463,8.6228,61.0969
157347,SLG,40,1.034811,-31.1896,1.04158,-150.9006,1.035991,89.168,8.6265,-58.9288,8.6199,-178.9354,8.6223,61.106
157347,LL,0,0.507041,-33.2172,0.34475,-162.034,1.25636,84.0986,6.9216,-90.2927,5.9894,-157.8147,10.7462,58.7095
157347,LL,10,1.02967,-31.1975,1.036848,-151.5488,1.041763,89.2031,8.6381,-59.1224,8.6331,-179.1467,8.6324,60.8945
157347,LL,20,1.033251,-31.1338,1.038619,-151.1989,1.03876,89.1435,8.6312,-59.0119,8.6256,-179.0253,8.6267,61.0133
157347,LL,30,1.034463,-31.112,1.039195,-151.0812,1.037752,89.1226,8.6289,-58.9748,8.6232,-178.9846,8.6248,61.0532
157347,LL,40,1.035073,-31.1009,1.03948,-151.0222,1.037246,89.1119,8.6278,-58.9562,8.622,-178.9641,8.6238,61.0733
157347,3LG,0,0.445636,-42.9466,0.446963,-162.7279,0.445052,77.1943,3.7766,-70.7194,3.7853,169.2667,3.7802,49.1594
157347,3LG,10,1.03456,-31.4234,1.037971,-151.2,1.033371,88.7231,8.6443,-59.2544,8.6382,-179.2567,8.641,60.7796
157347,3LG,20,1.035745,-31.2459,1.039156,-151.0228,1.034555,88.9006,8.6343,-59.0779,8.6282,-179.0802,8.6309,60.956
157347,3LG,30,1.036137,-31.1865,1.039547,-150.9634,1.034946,88.96,8.631,-59.0188,8.6249,-179.0211,8.6276,61.0151
157347,3LG,40,1.036332,-31.1568,1.039742,-150.9337,1.035141,88.9897,8.6293,-58.9892,8.6232,-178.9915,8.626,61.0447
298162,SLG,0,0.005032,153.2368,1.228131,-171.8596,1.400471,101.701,6.8956,-67.9376,8.3188,-172.6685,9.3584,52.7797
298162,SLG,10,1.020877,-32.5208,1.052719,-151.0674,1.033204,89.7899,8.6482,-59.2028,8.636,-179.2533,8.6355,60.8425
298162,SLG,20,1.028918,-31.7995,1.046594,-150.9531,1.034352,89.4359,8.636,-59.0534,8.6269,-179.0792,8.6281,60.9861
298162,SLG,30,1.031589,-31.5567,1.04452,-150.9162,1.034783,89.3173,8.6321,-59.0027,8.624,-179.0206,8.6257,61.0348
298162,SLG,40,1.032922,-31.4348,1.043477,-150.898,1.035009,89.2578,8.6301,-58.9773,8.6226,-178.9912,8.6245,61.0593
298162,LL,0,0.002948,-12.5025,0.008973,92.1186,1.35157,86.1307,4.9824,-121.5857,4.8806,-121.9987,9.8629,58.2099
298162,LL,10,1.018295,-31.8034,1.036558,-152.5098,1.045571,89.5552,8.662,-59.5008,8.6586,-179.5606,8.6524,60.4889
298162,LL,20,1.027502,-31.4417,1.038573,-151.682,1.040629,89.3256,8.6429,-59.2023,8.6382,-179.2339,8.6364,60.8089
298162,LL,30,1.030617,-31.3183,1.039187,-151.4038,1.038988,89.2454,8.6366,-59.102,8.6315,-179.1239,8.6312,60.9166
298162,LL,40,1.032183,-31.2561,1.039483,-151.2644,1.03817,89.2045,8.6335,-59.0517,8.6282,-179.0688,8.6286,60.9707
298162,3LG,0,0.005847,-101.5689,0.005859,138.5941,0.00584,18.5294,0.0495,-129.3768,0.0496,110.6032,0.0496,-9.4851
298162,3LG,10,1.03053,-32.0295,1.03397,-151.8081,1.029391,88.117,8.6785,-59.8583,8.6722,-179.8605,8.6751,60.1761
298162,3LG,20,1.03375,-31.5498,1.037175,-151.3277,1.032585,88.5967,8.6511,-59.3807,8.645,-179.3829,8.6477,60.6535
298162,3LG,30,1.034811,-31.3893,1.038231,-151.1669,1.033637,88.7572,8.6421,-59.2208,8.636,-179.2231,8.6388,60.8132
298162,3LG,40,1.035339,-31.3089,1.038757,-151.0864,1.034161,88.8376,8.6377,-59.1408,8.6316,-179.1431,8.6343,60.8932
165448,SLG,0,0.004912,152.9527,1.232871,-171.4918,1.392903,101.9156,6.8732,-67.2936,8.353,-172.5788,9.3136,52.8085
165448,SLG,10,1.020044,-32.6466,1.053696,-151.0592,1.032598,89.8332,8.6501,-59.2257,8.6374,-179.2801,8.6367,60.8205
165448,SLG,20,1.02851,-31.8632,1.04709,-150.9482,1.03403,89.4574,8.6369,-59.0651,8.6276,-179.0927,8.6287,60.9748
165448,SLG,30,1.031319,-31.5993,1.044853,-150.9128,1.034565,89.3316,8.6327,-59.0106,8.6244,-179.0297,8.6261,61.0272
165448,SLG,40,1.032721,-31.4668,1.043727,-150.8954,1.034844,89.2685,8.6306,-58.9832,8.6229,-178.998,8.6248,61.0536
165448,LL,0,0.002768,-9.021,0.00849,91.6033,1.34992,86.315,4.9709,-121.4176,4.8761,-121.7976,9.847,58.3942
165448,LL,10,1.016846,-31.8848,1.036671,-152.6263,1.045955,89.6047,8.665,-59.5469,8.6617,-179.6109,8.655,60.4396
165448,LL,20,1.026767,-31.4836,1.038654,-151.7406,1.040809,89.3516,8.6443,-59.2256,8.6397,-179.2593,8.6376,60.7839
165448,LL,30,1.030125,-31.3466,1.039247,-151.443,1.039106,89.263,8.6376,-59.1176,8.6325,-179.141,8.632,60.8999
165448,LL,40,1.031813,-31.2774,1.03953,-151.2938,1.038257,89.2178,8.6342,-59.0634,8.6289,-179.0816,8.6292,60.9581
165448,3LG,0,0.005428,-101.6223,0.005439,138.5343,0.005422,18.4719,0.046,-129.4339,0.0461,110.5454,0.046,-9.5409
165448,3LG,10,1.030037,-32.1035,1.033484,-151.8825,1.028908,88.0431,8.6826,-59.9321,8.6764,-179.9342,8.6792,60.1024
165448,3LG,20,1.033507,-31.587,1.036937,-151.3651,1.032348,88.5595,8.6531,-59.4178,8.647,-179.42,8.6498,60.6164
165448,3LG,30,1.03465,-31.4142,1.038073,-151.1919,1.03348,88.7324,8.6435,-59.2456,8.6374,-179.2479,8.6401,60.7884
165448,3LG,40,1.035219,-31.3276,1.038639,-151.1051,1.034044,88.819,8.6387,-59.1594,8.6326,-179.1617,8.6353,60.8746
165449,SLG,0,0.00303,153.5449,1.267659,-170.13,1.365472,103.436,6.9117,-63.9349,8.5628,-172.5428,9.1282,53.3139
165449,SLG,10,1.012033,-33.9045,1.063984,-150.9897,1.026515,90.2997,8.6679,-59.4445,8.6503,-179.5392,8.6467,60.6089
165449,SLG,20,1.024645,-32.5027,1.052336,-150.9025,1.030726,89.6877,8.6451,-59.178,8.6335,-179.2245,8.6332,60.8653
165449,SLG,30,1.028775,-32.0279,1.04837,-150.8797,1.032304,89.4843,8.6379,-59.0866,8.6282,-179.118,8.629,60.9533
165449,SLG,40,1.030826,-31.7892,1.046373,-150.8696,1.033125,89.3828,8.6344,-59.0405,8.6257,-179.0645,8.6269,60.9979
165449,LL,0,0.00166,-9.3212,0.005056,89.9551,1.34932,87.2967,4.9576,-120.5358,4.9006,-120.7377,9.8583,59.3638
165449,LL,10,1.002608,-32.6589,1.038517,-153.8007,1.050386,90.1121,8.6909,-59.9935,8.6897,179.9043,8.6769,59.9624
165449,LL,20,1.019525,-31.8888,1.039934,-152.332,1.042837,89.6222,8.6564,-59.4522,8.6529,-179.5062,8.6476,60.5407
165449,LL,30,1.025272,-31.6209,1.040182,-151.838,1.040411,89.4471,8.6454,-59.2694,8.6412,-179.3065,8.6384,60.7367
165449,LL,40,1.028165,-31.4848,1.040262,-151.5903,1.039217,89.3574,8.6401,-59.1775,8.6354,-179.2061,8.634,60.8353
165449,3LG,0,0.003215,-102.9647,0.003218,137.1195,0.003213,17.0853,0.0272,-130.8165,0.0273,109.1546,0.0273,-10.9113
165449,3LG,10,1.025802,-32.8205,1.029357,-152.6074,1.024833,87.3268,8.7183,-60.6487,8.712,179.3494,8.7149,59.3863
165449,3LG,20,1.031451,-31.9485,1.034939,-151.7304,1.030374,88.1987,8.6703,-59.7788,8.6641,-179.781,8.6669,60.2555
165449,3LG,30,1.033293,-31.6558,1.036757,-151.4361,1.032179,88.4913,8.6547,-59.4869,8.6486,-179.4892,8.6514,60.5472
165449,3LG,40,1.034206,-31.509,1.037657,-151.2885,1.033073,88.6379,8.6471,-59.3406,8.6409,-179.3429,8.6437,60.6935
287274,SLG,0,0.081308,-56.2189,1.277252,-167.1629,1.300066,103.9683,7.2532,-62.244,8.7495,-173.4219,9.1274,54.3942
287274,SLG,10,1.002194,-34.6117,1.06973,-150.9748,1.023476,90.5743,8.6937,-59.5685,8.6714,-179.6834,8.6675,60.5015
287274,SLG,20,1.019778,-32.8757,1.055382,-150.8841,1.028931,89.8258,8.6575,-59.2462,8.6435,-179.3016,8.6433,60.8063
287274,SLG,30,1.025547,-32.2808,1.050434,-150.865,1.031045,89.5763,8.6461,-59.1335,8.6348,-179.1705,8.6356,60.9128
287274,SLG,40,1.028411,-31.9804,1.047933,-150.8576,1.032158,89.4517,8.6405,-59.0762,8.6306,-179.1042,8.6319,60.967
287274,LL,0,0.112194,-54.6287,0.090794,163.9544,1.323522,88.4176,5.6389,-112.5272,4.4401,-129.3313,9.9724,60.0771
287274,LL,10,0.992829,-33.1444,1.037534,-154.5943,1.057508,90.3119,8.7059,-60.3265,8.7031,179.5376,8.6866,59.6211
287274,LL,20,1.012845,-32.1196,1.037977,-152.686,1.044163,89.7735,8.6788,-59.584,8.6748,-179.6557,8.6674,60.4025
287274,LL,30,1.020765,-31.7801,1.03896,-152.0764,1.041257,89.5521,8.6602,-59.359,8.6556,-179.408,8.6515,60.6426
287274,LL,40,1.024765,-31.6062,1.039378,-151.7699,1.039837,89.4376,8.6511,-59.2453,8.6462,-179.2829,8.6437,60.7639
287274,3LG,0,0.110731,-67.4824,0.110798,172.5639,0.11069,52.545,0.9385,-95.3576,0.9398,144.6123,0.9387,24.5584
287274,3LG,10,1.018312,-33.2363,1.021953,-153.0301,1.017487,86.9119,8.7829,-61.0617,8.7765,178.9366,8.7795,58.974
287274,3LG,20,1.027717,-32.1642,1.031256,-151.9496,1.026716,87.9837,8.7019,-59.9929,8.6957,-179.995,8.6985,60.0418
287274,3LG,30,1.030807,-31.8013,1.034306,-151.5839,1.029745,88.3463,8.6757,-59.6314,8.6695,-179.6335,8.6723,60.4031
287274,3LG,40,1.032344,-31.6189,1.035822,-151.4001,1.031249,88.5285,8.6627,-59.4496,8.6566,-179.4518,8.6594,60.5847
283954,SLG,0,0.001052,-98.7392,1.300412,-167.6723,1.312267,104.9677,6.8023,-59.4254,8.7998,-171.9237,8.8259,53.4792
283954,SLG,10,0.991125,-35.5578,1.07736,-150.9552,1.019509,90.9419,8.7228,-59.7286,8.695,-179.8747,8.6897,60.3568
283954,SLG,20,1.014308,-33.3641,1.059364,-150.8596,1.026599,90.007,8.6713,-59.3331,8.6546,-179.4018,8.654,60.7284
283954,SLG,30,1.02192,-32.6096,1.053116,-150.8454,1.029414,89.696,8.6551,-59.1931,8.642,-179.2383,8.6427,60.8595
283954,SLG,40,1.025699,-32.2282,1.049954,-150.8416,1.030905,89.541,8.6473,-59.1215,8.6359,-179.1555,8.6372,60.9265
283954,LL,0,0.001631,-76.2493,0.001756,127.1209,1.340006,88.6335,4.9093,-119.2612,4.8773,-119.4257,9.7866,60.6567
283954,LL,10,0.977484,-33.7012,1.033319,-155.5061,1.06156,90.6647,8.7569,-60.6583,8.7526,179.1638,8.7312,59.277
283954,LL,20,1.004977,-32.4219,1.036291,-153.1457,1.045916,89.9708,8.7031,-59.7559,8.6989,-179.8488,8.6888,60.222
283954,LL,30,1.015463,-31.9871,1.03793,-152.3843,1.042365,89.6885,8.6761,-59.4749,8.6715,-179.5381,8.6655,60.5201
283954,LL,40,1.020767,-31.7635,1.038642,-152.0013,1.040643,89.5418,8.6629,-59.3329,8.658,-179.3811,8.6541,60.6714
283954,3LG,0,0.001915,-94.1341,0.001916,145.8637,0.001915,25.8686,0.0162,-122.0352,0.0163,117.9312,0.0162,-2.1112
283954,3LG,10,1.010223,-33.7868,1.013971,-153.5903,1.009591,86.3629,8.8537,-61.6104,8.8471,178.3882,8.8502,58.4261
283954,3LG,20,1.023686,-32.4445,1.02729,-152.2347,1.022787,87.7046,8.7363,-60.2718,8.73,179.7263,8.7329,59.7633
283954,3LG,30,1.028125,-31.9894,1.03167,-151.7751,1.02713,88.1592,8.6984,-59.8183,8.6921,-179.8203,8.695,60.2164
283954,3LG,40,1.030333,-31.7603,1.033847,-151.5439,1.029291,88.3878,8.6797,-59.5901,8.6734,-179.5923,8.6763,60.4443
283956,SLG,0,0.000978,-85.9899,1.300368,-166.6399,1.288877,105.0102,7043.5811,-85.9647,8.8328,-171.4139,8.7116,53.1864
283956,SLG,10,0.973719,-35.7774,1.080398,-151.1647,1.021574,91.1961,709.0487,-36.0654,8.7294,-179.917,8.7265,60.3417
283956,SLG,20,1.005199,-33.4971,1.061169,-150.9651,1.027428,90.148,369.6898,-34.0848,8.6719,-179.4317,8.6729,60.7146
283956,SLG,30,1.015759,-32.7037,1.054388,-150.9155,1.029913,89.7929,251.5542,-33.5851,8.6536,-179.2603,8.6554,60.8488
283956,SLG,40,1.021046,-32.3008,1.050934,-150.8941,1.031258,89.6148,191.5418,-33.4701,8.6446,-179.1727,8.6468,60.9179
283956,LL,0,0.001436,-69.3462,0.001449,138.813,1.331956,89.0088,10342.3405,-69.3667,10428.1959,138.839,9.7025,61.0345
283956,LL,10,0.962438,-33.6464,1.018189,-155.9157,1.066335,90.6737,700.7935,-33.9755,741.0573,-156.2047,8.8021,59.2141
283956,LL,20,0.996779,-32.4078,1.028767,-153.3788,1.048488,89.9955,366.6036,-33.0366,378.1695,-153.9704,8.725,60.1762
283956,LL,30,1.009836,-31.9813,1.032932,-152.546,1.044114,89.7102,250.0958,-32.9029,255.6651,-153.4322,8.6898,60.4862
283956,LL,40,1.016485,-31.7607,1.034902,-152.125,1.041966,89.5601,190.6936,-32.9695,194.0227,-153.3001,8.6724,60.6448
283956,3LG,0,0.001615,-85.2151,0.001617,154.7838,0.001616,34.789,11630.6107,-85.2152,11638.8402,154.7838,11632.1034,34.789
283956,3LG,10,0.997293,-33.9589,1.000963,-153.765,0.996694,86.188,725.9532,-34.2893,728.575,-154.0961,725.5109,85.8563
283956,3LG,20,1.017044,-32.5409,1.020612,-152.3327,1.016169,87.6069,373.9136,-33.1699,375.1775,-152.9635,373.5878,86.9753
283956,3LG,30,1.023657,-32.056,1.02718,-151.8428,1.022682,88.0917,253.4222,-32.9781,254.247,-152.7678,253.1773,87.1656
283956,3LG,40,1.026968,-31.8112,1.030466,-151.5956,1.025941,88.3363,192.5873,-33.0207,193.1962,-152.8091,192.3916,87.1215
189963,SLG,0,0.405827,-44.3282,1.216767,-161.7974,1.187014,100.9113,9.081,-62.7856,9.1968,-178.4785,9.7278,58.7906
189963,SLG,10,0.998021,-35.156,1.07832,-151.1454,1.026184,90.7741,8.6771,-59.7295,8.6525,-179.8572,8.6481,60.3478
189963,SLG,20,1.016743,-33.1625,1.057971,-150.8898,1.027724,89.9522,8.6638,-59.2971,8.6485,-179.3606,8.6479,60.759
189963,SLG,30,1.023595,-32.4865,1.052259,-150.8634,1.030099,89.6621,8.6501,-59.1704,8.638,-179.2129,8.6385,60.8782
189963,SLG,40,1.026978,-32.1401,1.049338,-150.8543,1.031393,89.5165,8.6435,-59.1049,8.6329,-179.1372,8.634,60.9399
189963,LL,0,0.485448,-42.7784,0.426701,-174.4598,1.237373,89.216,7.1164,-89.5292,5.4359,-162.674,10.1304,59.5708
189963,LL,10,0.985269,-33.3046,1.034052,-155.1468,1.061218,90.4577,8.7296,-60.4946,8.7268,179.3495,8.7076,59.4433
189963,LL,20,1.011766,-32.3357,1.040857,-153.1001,1.049898,89.82,8.6583,-59.7723,8.6546,-179.8543,8.6457,60.2078
189963,LL,30,1.017891,-31.8942,1.038786,-152.2883,1.042236,89.6377,8.6665,-59.4334,8.6622,-179.4897,8.657,60.563
189963,LL,40,1.022565,-31.6978,1.039337,-151.9318,1.040545,89.5056,8.6557,-59.303,8.651,-179.3461,8.6477,60.7023
189963,3LG,0,0.480555,-50.2699,0.480803,-170.2756,0.480896,69.7524,4.0744,-78.1739,4.079,161.8072,4.0756,41.7603
189963,3LG,10,1.01798,-33.6109,1.022018,-153.4241,1.017528,86.5476,8.7836,-61.4395,8.7772,178.5592,8.7802,58.5961
189963,3LG,20,1.026008,-32.335,1.029746,-152.1293,1.025195,87.8184,8.7155,-60.1638,8.7093,179.8343,8.7122,59.871
189963,3LG,30,1.029688,-31.9214,1.033327,-151.7098,1.028752,88.2302,8.6845,-59.7513,8.6783,-179.7533,8.6811,60.2832
189963,3LG,40,1.031512,-31.7112,1.035098,-151.4968,1.030513,88.4393,8.6692,-59.5418,8.6631,-179.5439,8.6659,60.4925
181977,SLG,0,0.499453,-41.1194,1.191122,-160.3007,1.159889,99.4434,9.4125,-61.4109,9.3801,-179.7544,9.6306,59.583
181977,SLG,10,0.997311,-35.0575,1.077781,-151.1751,1.026917,90.763,8.678,-59.7123,8.6535,-179.8357,8.6496,60.3664
181977,SLG,20,1.016493,-33.1353,1.057831,-150.8991,1.027937,89.9503,8.6642,-59.2923,8.6489,-179.3546,8.6484,60.7644
181977,SLG,30,1.023456,-32.4738,1.0522,-150.8682,1.030201,89.6618,8.6504,-59.1681,8.6382,-179.2101,8.6388,60.8808
181977,SLG,40,1.026885,-32.1327,1.049306,-150.8572,1.031454,89.5166,8.6436,-59.1036,8.633,-179.1356,8.6342,60.9415
181977,LL,0,0.579782,-40.1653,0.515332,-169.4426,1.208574,89.2031,7.478,-82.559,6.2944,-168.6098,10.1007,59.0014
181977,LL,10,0.985843,-33.206,1.032539,-155.0954,1.061419,90.4075,8.7315,-60.4621,8.7285,179.3824,8.7095,59.477
181977,LL,20,1.011815,-32.3055,1.040381,-153.0911,1.050036,89.8074,8.6591,-59.7635,8.6554,-179.8454,8.6465,60.217
181977,LL,30,1.017906,-31.8795,1.038559,-152.2837,1.042299,89.6318,8.6669,-59.429,8.6626,-179.4852,8.6574,60.5676
181977,LL,40,1.022561,-31.6889,1.039199,-151.9294,1.040588,89.5023,8.656,-59.3004,8.6513,-179.3435,8.648,60.705
181977,3LG,0,0.571269,-46.4048,0.571742,-166.4033,0.57175,73.6304,5.2699,-74.2658,5.2802,165.716,5.2736,45.6282
181977,3LG,10,1.017708,-33.5672,1.021757,-153.3828,1.017287,86.5905,8.7859,-61.3967,8.7795,178.6021,8.7825,58.639
181977,3LG,20,1.025897,-32.3222,1.029651,-152.1178,1.025106,87.8312,8.7164,-60.1514,8.7101,179.8467,8.713,59.8834
181977,3LG,30,1.02962,-31.9152,1.033273,-151.7045,1.0287,88.2366,8.685,-59.7453,8.6788,-179.7473,8.6816,60.2892
181977,3LG,40,1.031464,-31.7075,1.035061,-151.4936,1.030477,88.4432,8.6696,-59.5382,8.6634,-179.5403,8.6662,60.4961
181924,SLG,0,0.509633,-36.1621,1.173104,-160.552,1.168262,98.6174,9.5514,-60.4045,9.505,-179.7192,9.6268,60.1765
181924,SLG,10,0.99593,-35.0468,1.077935,-151.2061,1.027341,90.7875,8.6803,-59.7105,8.6556,-179.8329,8.652,60.3701
181924,SLG,20,1.016044,-33.1332,1.057896,-150.9087,1.028052,89.959,8.665,-59.292,8.6496,-179.3539,8.6492,60.7654
181924,SLG,30,1.023211,-32.4734,1.052257,-150.8727,1.03025,89.667,8.6508,-59.1678,8.6385,-179.2096,8.6392,60.8816
181924,SLG,40,1.026723,-32.1325,1.049346,-150.8601,1.031484,89.5202,8.6439,-59.1034,8.6332,-179.1352,8.6344,60.942
181924,LL,0,0.566,-37.3355,0.5037,-162.3048,1.200117,88.736,7.2983,-82.3513,6.51,-163.934,10.4668,59.6776
181924,LL,10,0.985295,-33.163,1.031102,-155.1236,1.061978,90.3918,8.7358,-60.4603,8.7327,179.3818,8.7134,59.4787
181924,LL,20,1.011536,-32.2912,1.039943,-153.1034,1.050271,89.806,8.6606,-59.7627,8.6568,-179.8453,8.6478,60.2177
181924,LL,30,1.01775,-31.8722,1.038344,-152.2894,1.042417,89.6316,8.6677,-59.4284,8.6633,-179.4849,8.6581,60.5683
181924,LL,40,1.02245,-31.6841,1.039063,-151.9331,1.040666,89.5025,8.6565,-59.2999,8.6517,-179.3431,8.6485,60.7056
181924,3LG,0,0.547779,-41.5629,0.548175,-161.5569,0.548215,78.4732,4.897,-69.4323,4.9062,170.5542,4.9006,50.4672
181924,3LG,10,1.017057,-33.5725,1.021105,-153.3886,1.016641,86.5851,8.7916,-61.4018,8.7852,178.5969,8.7882,58.6339
181924,3LG,20,1.025682,-32.3228,1.029441,-152.1186,1.024894,87.8308,8.7182,-60.1518,8.7119,179.8463,8.7148,59.883
181924,3LG,30,1.0295,-31.915,1.033157,-151.7044,1.028583,88.2369,8.686,-59.745,8.6798,-179.7471,8.6826,60.2894
181924,3LG,40,1.031383,-31.7072,1.034984,-151.4934,1.030399,88.4437,8.6703,-59.5378,8.6641,-179.5399,8.6669,60.4965
181993,SLG,0,0.54742,-34.4608,1.159298,-160.0525,1.161037,97.8545,9.4841,-60.1891,9.4299,-179.5581,9.5472,60.4072
181993,SLG,10,0.995179,-35.002,1.077769,-151.2291,1.027796,90.7911,8.6814,-59.7028,8.6567,-179.823,8.6533,60.379
181993,SLG,20,1.015777,-33.1233,1.057885,-150.9161,1.028173,89.9625,8.6654,-59.2902,8.65,-179.3517,8.6497,60.7676
181993,SLG,30,1.023068,-32.4697,1.052268,-150.8762,1.030303,89.6695,8.651,-59.167,8.6387,-179.2086,8.6394,60.8826
181993,SLG,40,1.026631,-32.1307,1.04936,-150.8623,1.031513,89.522,8.644,-59.103,8.6334,-179.1347,8.6346,60.9426
181993,LL,0,0.595517,-35.9015,0.537205,-159.3824,1.187646,88.6182,7.4346,-79.4944,6.9332,-164.9275,10.5617,59.6346
181993,LL,10,0.985448,-33.109,1.029931,-155.1093,1.062231,90.3629,8.738,-60.4467,8.7347,179.3946,8.7154,59.4928
181993,LL,20,1.011503,-32.2746,1.03959,-153.1035,1.050398,89.7993,8.6613,-59.7593,8.6575,-179.8421,8.6485,60.2212
181993,LL,30,1.017708,-31.8644,1.038177,-152.2906,1.042489,89.6291,8.6681,-59.4269,8.6637,-179.4835,8.6585,60.5698
181993,LL,40,1.022413,-31.6795,1.038963,-151.9343,1.040714,89.5014,8.6567,-59.2991,8.652,-179.3424,8.6487,60.7064
181993,3LG,0,0.576039,-39.24,0.576498,-159.2223,0.576469,80.8019,5.3449,-67.0958,5.3554,172.893,5.3493,52.8017
181993,3LG,10,1.016749,-33.559,1.020772,-153.3739,1.016308,86.5981,8.7945,-61.3879,8.788,178.6109,8.7911,58.6479
181993,3LG,20,1.025579,-32.3196,1.029329,-152.115,1.024783,87.8338,8.7192,-60.1485,8.7129,179.8496,8.7158,59.8863
181993,3LG,30,1.029444,-31.9137,1.033097,-151.7028,1.028522,88.2382,8.6865,-59.7436,8.6803,-179.7457,8.6831,60.2909
181993,3LG,40,1.031347,-31.7065,1.034944,-151.4925,1.030359,88.4444,8.6706,-59.537,8.6644,-179.5391,8.6672,60.4973
181994,SLG,0,0.586629,-33.514,1.147139,-159.4489,1.151868,97.1365,9.4105,-60.0393,9.3515,-179.4556,9.4638,60.5612
181994,SLG,10,0.994628,-34.9426,1.077443,-151.2496,1.028285,90.7851,8.6822,-59.6931,8.6575,-179.8106,8.6545,60.3899
181994,SLG,20,1.01559,-33.1081,1.057809,-150.9226,1.028311,89.962,8.6657,-59.2878,8.6503,-179.3486,8.6501,60.7705
181994,SLG,30,1.022976,-32.4628,1.052237,-150.8792,1.030366,89.6694,8.6511,-59.1659,8.6389,-179.2072,8.6396,60.8839
181994,SLG,40,1.026576,-32.1268,1.049342,-150.8641,1.031549,89.522,8.6441,-59.1023,8.6335,-179.1338,8.6347,60.9433
181994,LL,0,0.630377,-34.7816,0.576741,-157.6612,1.175542,88.5667,7.6313,-76.3965,7.387,-166.5666,10.6052,59.4533
181994,LL,10,0.985821,-33.0522,1.028814,-155.0771,1.062349,90.3283,8.7397,-60.4287,8.7362,179.4122,8.717,59.5115
181994,LL,20,1.011571,-32.2571,1.039252,-153.097,1.050469,89.7898,8.6619,-59.7545,8.658,-179.8373,8.6491,60.2262
181994,LL,30,1.017729,-31.8561,1.038018,-152.288,1.042527,89.6249,8.6684,-59.4247,8.664,-179.4814,8.6587,60.5721
181994,LL,40,1.022424,-31.6747,1.03887,-151.9328,1.040737,89.4989,8.6569,-59.2978,8.6522,-179.3411,8.6489,60.7078
181994,3LG,0,0.612067,-37.6301,0.612645,-157.5972,0.612486,82.4202,5.9161,-65.4721,5.9283,174.5187,5.9214,54.4215
181994,3LG,10,1.016503,-33.5383,1.020503,-153.3515,1.016032,86.6187,8.7968,-61.3665,8.7903,178.6323,8.7934,58.6693
181994,3LG,20,1.025505,-32.3143,1.029246,-152.109,1.024697,87.8392,8.7199,-60.1429,8.7136,179.8552,8.7165,59.8919
181994,3LG,30,1.029409,-31.9113,1.033056,-151.7,1.028479,88.2407,8.6869,-59.7409,8.6807,-179.743,8.6835,60.2935
181994,3LG,40,1.031326,-31.705,1.03492,-151.4908,1.030332,88.4458,8.6708,-59.5354,8.6646,-179.5375,8.6674,60.4989
181891,SLG,0,0.639319,-34.2385,1.138163,-158.3884,1.133588,96.4432,9.3181,-60.0043,9.257,-179.6076,9.3434,60.5181
181891,SLG,10,0.994615,-34.8288,1.076627,-151.2672,1.028954,90.7526,8.6819,-59.6747,8.6575,-179.7877,8.6549,60.409
181891,SLG,20,1.015532,-33.075,1.057566,-150.9295,1.028535,89.9531,8.6658,-59.2826,8.6504,-179.3422,8.6503,60.776
181891,SLG,30,1.022946,-32.4467,1.05212,-150.8825,1.030476,89.665,8.6512,-59.1634,8.6389,-179.2041,8.6398,60.8866
181891,SLG,40,1.026559,-32.1171,1.049275,-150.8658,1.031615,89.5192,8.6442,-59.1008,8.6335,-179.1319,8.6348,60.945
181891,LL,0,0.689215,-35.1039,0.633146,-158.4387,1.160525,88.7234,8.0049,-72.7642,7.9121,-170.5622,10.4639,58.7197
181891,LL,10,0.98695,-32.9711,1.027762,-154.9914,1.062165,90.2734,8.7397,-60.3934,8.736,179.4488,8.717,59.5484
181891,LL,20,1.011873,-32.2304,1.038882,-153.0743,1.050465,89.7722,8.662,-59.7443,8.6581,-179.8267,8.6493,60.2369
181891,LL,30,1.017867,-31.843,1.037835,-152.2774,1.042533,89.6162,8.6685,-59.4198,8.664,-179.4763,8.6589,60.5773
181891,LL,40,1.022507,-31.6668,1.03876,-151.9263,1.040741,89.4936,8.657,-59.2949,8.6522,-179.338,8.6489,60.7109
181891,3LG,0,0.671857,-38.1189,0.672739,-158.068,0.672252,81.9449,6.8645,-65.9439,6.88,174.0435,6.871,53.9384
181891,3LG,10,1.016565,-33.4891,1.020491,-153.3014,1.016053,86.664,8.7966,-61.3183,8.7901,178.6804,8.7932,58.7175
181891,3LG,20,1.025512,-32.3001,1.02922,-152.0949,1.024694,87.8514,8.7199,-60.1294,8.7136,179.8687,8.7165,59.9055
181891,3LG,30,1.029413,-31.9043,1.03304,-151.6932,1.02848,88.2463,8.6869,-59.7345,8.6807,-179.7365,8.6835,60.3
181891,3LG,40,1.03133,-31.7008,1.034909,-151.4867,1.030334,88.4492,8.6708,-59.5315,8.6646,-179.5336,8.6674,60.5028
255335,SLG,0,0.650775,-33.5793,1.133254,-158.2648,1.13254,96.1705,9.2945,-59.9222,9.2327,-179.5079,9.3217,60.6132
255335,SLG,10,0.994167,-34.8143,1.076638,-151.2786,1.029141,90.7595,8.6826,-59.6716,8.6581,-179.7837,8.6557,60.4128
255335,SLG,20,1.018302,-33.1679,1.061791,-151.0316,1.032365,89.9085,8.6352,-59.3651,8.6199,-179.4239,8.6199,60.6937
255335,SLG,30,1.022864,-32.4472,1.052148,-150.8842,1.030487,89.6676,8.6513,-59.1633,8.6391,-179.2039,8.6399,60.8868
255335,SLG,40,1.026508,-32.1179,1.049292,-150.867,1.03162,89.521,8.6443,-59.1008,8.6336,-179.132,8.6348,60.945
255335,LL,0,0.696096,-34.1957,0.646818,-157.3242,1.157211,88.6726,8.0647,-71.6933,8.051,-170.6124,10.4749,58.9041
255335,LL,10,0.986873,-32.951,1.027185,-154.9857,1.062293,90.2634,8.7413,-60.3876,8.7375,179.4537,8.7184,59.5545
255335,LL,20,1.011809,-32.2245,1.038712,-153.0759,1.050525,89.7706,8.6625,-59.7432,8.6586,-179.8259,8.6497,60.238
255335,LL,30,1.017822,-31.8404,1.037759,-152.2792,1.042566,89.6161,8.6687,-59.4195,8.6643,-179.4761,8.6591,60.5775
255335,LL,40,1.022473,-31.6655,1.038717,-151.9278,1.040763,89.4938,8.6571,-59.2948,8.6524,-179.338,8.6491,60.7109
255335,3LG,0,0.681586,-36.9415,0.68253,-156.8842,0.682008,83.1273,7.019,-64.7643,7.0349,175.2266,7.026,55.1185
255335,3LG,10,1.016275,-33.4848,1.020238,-153.295,1.01575,86.6722,8.7991,-61.3118,8.7926,178.6869,8.7957,58.724
255335,3LG,20,1.02542,-32.3002,1.029147,-152.0938,1.024591,87.8533,8.7207,-60.1283,8.7144,179.8698,8.7173,59.9065
255335,3LG,30,1.029365,-31.9048,1.033005,-151.6928,1.028424,88.2472,8.6873,-59.7342,8.6811,-179.7363,8.6839,60.3003
255335,3LG,40,1.031299,-31.7013,1.034889,-151.4866,1.030297,88.4496,8.6711,-59.5315,8.6649,-179.5336,8.6677,60.5028
182030,SLG,0,0.665704,-33.9074,1.131439,-157.9449,1.126957,95.9954,9.2684,-59.9273,9.2067,-179.5695,9.2876,60.5808
182030,SLG,10,0.994231,-34.7782,1.076386,-151.2827,1.029331,90.749,8.6823,-59.6653,8.658,-179.776,8.6557,60.4192
182030,SLG,20,1.018295,-33.1578,1.061724,-151.0334,1.032429,89.9061,8.6352,-59.3633,8.6199,-179.4218,8.62,60.6955
182030,SLG,30,1.022856,-32.4426,1.052118,-150.8851,1.030518,89.6666,8.6513,-59.1625,8.6391,-179.203,8.6399,60.8877
182030,SLG,40,1.026502,-32.1152,1.049276,-150.8676,1.031638,89.5205,8.6443,-59.1004,8.6336,-179.1314,8.6349,60.9455
182030,LL,0,0.712819,-34.1774,0.665534,-157.6654,1.153462,88.7501,8.1987,-70.6331,8.1702,-171.9779,10.3739,58.8163
182030,LL,10,0.98721,-32.9288,1.026945,-154.9534,1.062195,90.2483,8.7412,-60.3753,8.7373,179.4665,8.7183,59.5677
182030,LL,20,1.011897,-32.217,1.038615,-153.0678,1.050515,89.7658,8.6626,-59.7398,8.6586,-179.8223,8.6498,60.2416
182030,LL,30,1.017858,-31.8368,1.03771,-152.2757,1.042566,89.6138,8.6688,-59.418,8.6643,-179.4745,8.6591,60.5792
182030,LL,40,1.022493,-31.6633,1.038687,-151.9259,1.040763,89.4925,8.6571,-59.2939,8.6524,-179.3371,8.6491,60.7119
182030,3LG,0,0.700708,-37.0259,0.701776,-156.9638,0.701142,83.0477,7.3225,-64.845,7.3396,175.1451,7.33,55.0344
182030,3LG,10,1.016277,-33.4666,1.020233,-153.2764,1.015744,86.6902,8.7991,-61.2935,8.7926,178.7052,8.7957,58.7423
182030,3LG,20,1.025412,-32.2954,1.029137,-152.0889,1.024581,87.8581,8.7208,-60.1235,8.7145,179.8746,8.7174,59.9114
182030,3LG,30,1.029361,-31.9026,1.032999,-151.6906,1.028418,88.2493,8.6873,-59.732,8.6811,-179.7341,8.684,60.3025
182030,3LG,40,1.031296,-31.7001,1.034885,-151.4853,1.030294,88.4509,8.6711,-59.5302,8.6649,-179.5324,8.6677,60.5041
182153,SLG,0,0.745477,-34.8909,1.119786,-156.3002,1.099664,94.9298,9.1272,-59.9172,9.0678,-179.7809,9.1164,60.4739
182153,SLG,10,0.994823,-34.541,1.074684,-151.3066,1.030518,90.6765,8.6806,-59.6247,8.6569,-179.726,8.6555,60.4605
182153,SLG,20,1.015346,-32.9954,1.057068,-150.9467,1.029045,89.9378,8.6659,-59.2684,8.6507,-179.3249,8.6509,60.7909
182153,SLG,30,1.022816,-32.4103,1.051895,-150.8917,1.030722,89.6591,8.6514,-59.157,8.6392,-179.1963,8.6401,60.8935
182153,SLG,40,1.026471,-32.0965,1.049149,-150.8715,1.031757,89.5163,8.6443,-59.0971,8.6336,-179.1275,8.635,60.9489
182153,LL,0,0.799871,-34.5513,0.752832,-158.5561,1.131288,89.0334,8.8487,-66.2135,8.7524,-177.9097,9.8813,58.4005
182153,LL,10,0.98989,-32.7659,1.025398,-154.7545,1.061573,90.1413,8.7388,-60.2957,8.7347,179.5504,8.7164,59.6506
182153,LL,20,1.012596,-32.16,1.03795,-153.0168,1.050459,89.7306,8.6625,-59.7166,8.6584,-179.7979,8.6498,60.2659
182153,LL,30,1.018154,-31.8084,1.037367,-152.2536,1.042567,89.5972,8.6688,-59.4072,8.6644,-179.4631,8.6593,60.5905
182153,LL,40,1.022657,-31.6464,1.038479,-151.9134,1.04077,89.4827,8.6572,-59.2876,8.6524,-179.3305,8.6492,60.7184
182153,3LG,0,0.791048,-37.5568,0.792892,-157.461,0.791425,82.546,8.7564,-65.3546,8.7799,174.6308,8.7663,54.5051
182153,3LG,10,1.016663,-33.353,1.020583,-153.1596,1.016072,86.8042,8.796,-61.1789,8.7895,178.8197,8.7926,58.8568
182153,3LG,20,1.025455,-32.2635,1.02917,-152.0559,1.024604,87.8902,8.7205,-60.0912,8.7142,179.9069,8.7171,59.9436
182153,3LG,30,1.029368,-31.8879,1.033004,-151.6752,1.028415,88.2645,8.6873,-59.7169,8.6811,-179.719,8.6839,60.3175
182153,3LG,40,1.031296,-31.6916,1.034884,-151.4763,1.030286,88.4597,8.6711,-59.5215,8.6649,-179.5236,8.6677,60.5128
182158,SLG,0,0.769422,-34.7193,1.114319,-155.8562,1.093302,94.5117,9.0836,-59.8692,9.0259,-179.7612,9.0696,60.5004
182158,SLG,10,0.994867,-34.4499,1.074064,-151.3196,1.031026,90.6523,8.6802,-59.6091,8.6567,-179.7067,8.6557,60.4767
182158,SLG,20,1.015274,-32.9688,1.056899,-150.9526,1.029221,89.9326,8.666,-59.2638,8.6508,-179.3193,8.6512,60.7958
182158,SLG,30,1.022769,-32.3978,1.051817,-150.8949,1.030809,89.6569,8.6514,-59.1548,8.6392,-179.1937,8.6403,60.8958
182158,SLG,40,1.026439,-32.0893,1.049104,-150.8734,1.031809,89.5151,8.6444,-59.0959,8.6337,-179.126,8.6351,60.9503
182158,LL,0,0.821421,-34.3156,0.777638,-158.0776,1.124067,89.0671,9.0164,-64.957,8.9061,-179.0376,9.7512,58.5464
182158,LL,10,0.990843,-32.7038,1.024591,-154.6807,1.061387,90.0986,8.7387,-60.2662,8.7345,179.5808,8.7164,59.6813
182158,LL,20,1.012844,-32.1371,1.037619,-152.9984,1.05046,89.7163,8.6627,-59.7079,8.6586,-179.7889,8.65,60.2749
182158,LL,30,1.018256,-31.7969,1.037199,-152.2459,1.042581,89.5904,8.669,-59.4031,8.6645,-179.4589,8.6594,60.5947
182158,LL,40,1.022713,-31.6395,1.038377,-151.9092,1.040781,89.4788,8.6573,-59.2853,8.6525,-179.328,8.6493,60.7209
182158,3LG,0,0.813685,-37.127,0.81579,-157.0141,0.813981,82.9868,9.1152,-64.9161,9.1408,175.0693,9.126,54.9374
182158,3LG,10,1.01668,-33.3126,1.020577,-153.1183,1.016067,86.8439,8.796,-61.1384,8.7895,178.8602,8.7925,58.8973
182158,3LG,20,1.025435,-32.252,1.029142,-152.0443,1.024579,87.9014,8.7207,-60.0797,8.7144,179.9183,8.7173,59.9551
182158,3LG,30,1.029355,-31.8825,1.032986,-151.6697,1.028398,88.2697,8.6875,-59.7115,8.6812,-179.7136,8.6841,60.3229
182158,3LG,40,1.031286,-31.6885,1.034872,-151.4732,1.030275,88.4627,8.6712,-59.5183,8.665,-179.5205,8.6678,60.516
182162,SLG,0,0.789245,-34.5169,1.109511,-155.4945,1.088392,94.1496,9.0472,-59.8211,8.9913,-179.731,9.0317,60.5312
182162,SLG,10,0.994894,-34.3646,1.073489,-151.3322,1.031509,90.6301,8.6799,-59.5945,8.6566,-179.6887,8.6559,60.4918
182162,SLG,20,1.018147,-33.0359,1.060903,-151.0569,1.033198,89.8778,8.6353,-59.3423,8.6202,-179.3963,8.6207,60.7175
182162,SLG,30,1.022718,-32.3861,1.051745,-150.898,1.030894,89.655,8.6515,-59.1528,8.6393,-179.1912,8.6404,60.898
182162,SLG,40,1.026405,-32.0825,1.049063,-150.8753,1.031859,89.5141,8.6444,-59.0947,8.6338,-179.1246,8.6352,60.9515
182162,LL,0,0.838621,-34.0984,0.797709,-157.5993,1.117954,89.0854,9.1499,-63.9518,9.0298,-179.8495,9.6481,58.7042
182162,LL,10,0.991737,-32.6468,1.023821,-154.6114,1.061216,90.0584,8.7386,-60.2389,8.7342,179.6089,8.7163,59.7099
182162,LL,20,1.013081,-32.1155,1.037294,-152.9811,1.050467,89.7027,8.6629,-59.6997,8.6588,-179.7805,8.6502,60.2834
182162,LL,30,1.018353,-31.7859,1.037033,-152.2388,1.042597,89.584,8.6691,-59.3993,8.6646,-179.4549,8.6596,60.5986
182162,LL,40,1.022766,-31.6329,1.038277,-151.9053,1.040794,89.475,8.6574,-59.2831,8.6526,-179.3258,8.6494,60.7232
182162,3LG,0,0.83156,-36.7207,0.833884,-156.593,0.831774,83.4024,9.3986,-64.5022,9.4259,175.4833,9.4102,55.3464
182162,3LG,10,1.016687,-33.2754,1.020561,-153.0803,1.016052,86.8804,8.796,-61.1012,8.7896,178.8974,8.7926,58.9345
182162,3LG,20,1.025414,-32.2414,1.029112,-152.0335,1.024552,87.9117,8.7209,-60.0692,8.7146,179.9289,8.7175,59.9657
182162,3LG,30,1.029341,-31.8775,1.032968,-151.6647,1.028382,88.2744,8.6876,-59.7066,8.6814,-179.7087,8.6842,60.3278
182162,3LG,40,1.031277,-31.6856,1.03486,-151.4703,1.030265,88.4655,8.6713,-59.5155,8.6651,-179.5176,8.6679,60.5188
